Input file: /home/cfphxd/GBS_Workshop/04_TOPM/../03_SAM/GBS_Workshop_Maize.sam
Output file: ./GBS_Workshop_Maize.topm
Total 41509 tags
	41431 were aligned to unique postions
	78 were aligned to multiple postions
	0 could not be aligned.

nPositions  nTags
1           41431
99          78
